/*--------------------------------*- C++ -*----------------------------------*\
| =========                 |                                                 |
| \\      /  F ield         | OpenFOAM: The Open Source CFD Toolbox           |
|  \\    /   O peration     | Version:  2506                                  |
|   \\  /    A nd           | Website:  www.openfoam.com                      |
|    \\/     M anipulation  |                                                 |
\*---------------------------------------------------------------------------*/
FoamFile
{
    version     2.0;
    format      ascii;
    arch        "LSB;label=32;scalar=64";
    class       extendedFeatureEdgeMesh;
    location    "constant/extendedFeatureEdgeMesh";
    object      rocket.extendedFeatureEdgeMesh;
}
// * * * * * * * * * * * * * * * * * * * * * * * * * * * * * * * * * * * * * //

// points

1799
(
(-2.7708 4.64924 -0.0108319)
(-14.7268 -4.48856 0.262448)
(-14.7268 4.64924 -0.284112)
(-15.5808 8.0583 -0.284112)
(-17.9982 8.0583 -0.284112)
(-17.9982 8.0583 0.262448)
(-15.5808 8.0583 0.262448)
(-14.7268 4.64924 0.262448)
(-17.9982 -7.89761 -0.284112)
(-15.5808 -7.89761 -0.284112)
(-14.7268 -4.48856 -0.284112)
(-15.5808 -7.89761 0.262448)
(-17.9982 -7.89761 0.262448)
(2.7802 -4.48856 -0.0108319)
(20.0737 -4.48856 -0.0108319)
(17.4174 -5.50199 0.288068)
(17.4174 -5.50213 0.288068)
(17.4177 -5.50209 0.288068)
(17.3704 5.60156 0.288068)
(17.3704 5.6017 0.288068)
(17.3707 5.60166 0.288068)
(17.3703 5.60144 -0.309732)
(17.3706 5.60155 -0.309732)
(17.3703 5.60158 -0.309732)
(20.0737 4.64924 -0.0108319)
(14.7579 -2.55517 3.72131)
(14.774 -2.58213 3.70213)
(14.7939 -2.60735 3.68392)
(14.7583 -1.83244 4.1384)
(14.7748 -1.8019 4.15234)
(14.7951 -1.77331 4.16515)
(14.758 -1.8326 -4.15999)
(14.7742 -1.80235 -4.1738)
(14.7943 -1.77382 -4.18659)
(14.7586 -2.55693 -3.74174)
(14.7752 -2.58434 -3.7222)
(14.7957 -2.60975 -3.70384)
(17.4177 -5.50198 -0.309732)
(17.4173 -5.50201 -0.309732)
(17.4173 -5.50188 -0.309732)
(-14.7268 -4.48856 -0.0108319)
(21.1412 4.64656 -0.167298)
(2.7802 4.64924 -0.0108319)
(-14.7268 4.64924 -0.0108319)
(-28.9032 0.0803423 -0.0108319)
(-28.9032 0.0803423 0.262448)
(-28.9032 0.0803423 -0.284112)
(-15.2534 -4.47077 -0.0108319)
(-15.7754 -4.44609 -0.0108319)
(-16.2927 -4.41447 -0.0108319)
(-16.8054 -4.37581 -0.0108319)
(-17.3132 -4.33002 -0.0108319)
(-17.8162 -4.27695 -0.0108319)
(-18.3142 -4.21643 -0.0108319)
(-18.8071 -4.14828 -0.0108319)
(-19.2948 -4.07229 -0.0108319)
(-19.7771 -3.98824 -0.0108319)
(-20.2538 -3.89591 -0.0108319)
(-20.7249 -3.79507 -0.0108319)
(-21.1901 -3.6855 -0.0108319)
(-21.6494 -3.567 -0.0108319)
(-22.1025 -3.43939 -0.0108319)
(-22.5495 -3.30255 -0.0108319)
(-22.9902 -3.15638 -0.0108319)
(-23.4247 -3.00087 -0.0108319)
(-23.853 -2.83606 -0.0108319)
(-24.2752 -2.66206 -0.0108319)
(-24.6912 -2.47899 -0.0108319)
(-25.1014 -2.28704 -0.0108319)
(-25.5057 -2.08639 -0.0108319)
(-25.9043 -1.87725 -0.0108319)
(-26.2974 -1.65982 -0.0108319)
(-26.6851 -1.43428 -0.0108319)
(-27.0675 -1.20083 -0.0108319)
(-27.4447 -0.959625 -0.0108319)
(-27.8168 -0.710807 -0.0108319)
(-28.1839 -0.454489 -0.0108319)
(-28.546 -0.190756 -0.0108319)
(-15.1991 4.63362 -0.0108319)
(-15.6713 4.61227 -0.0108319)
(-16.1433 4.58503 -0.0108319)
(-16.615 4.55172 -0.0108319)
(-17.0864 4.5121 -0.0108319)
(-17.5573 4.46593 -0.0108319)
(-18.0277 4.41293 -0.0108319)
(-18.4974 4.35278 -0.0108319)
(-18.9662 4.28515 -0.0108319)
(-19.434 4.20966 -0.0108319)
(-19.9005 4.12594 -0.0108319)
(-20.3656 4.03356 -0.0108319)
(-20.8289 3.93213 -0.0108319)
(-21.2902 3.82124 -0.0108319)
(-21.7492 3.7005 -0.0108319)
(-22.2054 3.56956 -0.0108319)
(-22.6587 3.42809 -0.0108319)
(-23.1084 3.27592 -0.0108319)
(-23.5544 3.11288 -0.0108319)
(-23.9963 2.93899 -0.0108319)
(-24.4338 2.75431 -0.0108319)
(-24.8667 2.55897 -0.0108319)
(-25.2947 2.35323 -0.0108319)
(-25.7176 2.13732 -0.0108319)
(-26.1353 1.91155 -0.0108319)
(-26.5476 1.67624 -0.0108319)
(-26.9544 1.43169 -0.0108319)
(-27.3557 1.17821 -0.0108319)
(-27.7513 0.916081 -0.0108319)
(-28.1411 0.645564 -0.0108319)
(-28.5251 0.36693 -0.0108319)
(21.1412 0.344411 -0.86612)
(21.1412 0.33368 -1.00931)
(21.1412 0.344411 -1.1525)
(21.1412 0.376364 -0.726127)
(21.1412 0.428824 -0.592459)
(21.1412 0.500621 -0.468103)
(21.1412 0.590151 -0.355837)
(21.1412 0.695413 -0.258168)
(21.1412 0.814055 -0.177279)
(21.1412 0.943429 -0.114976)
(21.1412 1.08064 -0.0726506)
(21.1412 1.22263 -0.051249)
(21.1412 1.36623 -0.051249)
(21.1412 1.50822 -0.0726506)
(21.1412 1.64543 -0.114976)
(21.1412 1.77481 -0.177279)
(21.1412 1.89345 -0.258168)
(21.1412 1.99871 -0.355837)
(21.1412 2.08824 -0.468103)
(21.1412 2.16004 -0.592459)
(21.1412 2.2125 -0.726127)
(21.1412 2.24445 -0.86612)
(21.1412 2.25518 -1.00931)
(21.1412 2.24445 -1.1525)
(21.1412 2.2125 -1.2925)
(21.1412 2.16004 -1.42617)
(21.1412 2.08824 -1.55052)
(21.1412 1.99871 -1.66279)
(21.1412 1.89345 -1.76046)
(21.1412 1.77481 -1.84135)
(21.1412 1.64543 -1.90365)
(21.1412 1.50822 -1.94597)
(21.1412 1.36623 -1.96738)
(21.1412 1.22263 -1.96738)
(21.1412 1.08064 -1.94597)
(21.1412 0.943429 -1.90365)
(21.1412 0.814055 -1.84135)
(21.1412 0.695413 -1.76046)
(21.1412 0.590151 -1.66279)
(21.1412 0.500621 -1.55052)
(21.1412 0.428824 -1.42617)
(21.1412 0.376364 -1.2925)
(20.0737 0.717454 -1.00931)
(20.0737 0.726219 -0.909122)
(20.0737 0.75225 -0.811975)
(20.0737 0.794755 -0.720824)
(20.0737 0.852441 -0.638439)
(20.0737 0.923557 -0.567323)
(20.0737 1.00594 -0.509637)
(20.0737 1.09709 -0.467132)
(20.0737 1.19424 -0.441102)
(20.0737 1.29443 -0.432336)
(20.0737 1.39462 -0.441102)
(20.0737 1.49177 -0.467132)
(20.0737 1.58292 -0.509637)
(20.0737 1.6653 -0.567323)
(20.0737 1.73642 -0.638439)
(20.0737 1.79411 -0.720824)
(20.0737 1.83661 -0.811975)
(20.0737 1.86264 -0.909122)
(20.0737 1.87141 -1.00931)
(20.0737 1.86264 -1.1095)
(20.0737 1.83661 -1.20665)
(20.0737 1.79411 -1.2978)
(20.0737 1.73642 -1.38019)
(20.0737 1.6653 -1.4513)
(20.0737 1.58292 -1.50899)
(20.0737 1.49177 -1.55149)
(20.0737 1.39462 -1.57752)
(20.0737 1.29443 -1.58629)
(20.0737 1.19424 -1.57752)
(20.0737 1.09709 -1.55149)
(20.0737 1.00594 -1.50899)
(20.0737 0.923557 -1.4513)
(20.0737 0.852441 -1.38019)
(20.0737 0.794755 -1.2978)
(20.0737 0.75225 -1.20665)
(20.0737 0.726219 -1.1095)
(21.1412 -0.869675 1.41336)
(21.1412 -0.880405 1.27017)
(21.1412 -0.869675 1.12698)
(21.1412 -0.837723 1.55335)
(21.1412 -0.785261 1.68702)
(21.1412 -0.713465 1.81138)
(21.1412 -0.623935 1.92364)
(21.1412 -0.518674 2.02131)
(21.1412 -0.400031 2.1022)
(21.1412 -0.270658 2.16451)
(21.1412 -0.133443 2.20683)
(21.1412 0.00854778 2.22823)
(21.1412 0.152142 2.22823)
(21.1412 0.294131 2.20683)
(21.1412 0.431346 2.16451)
(21.1412 0.560719 2.1022)
(21.1412 0.679361 2.02131)
(21.1412 0.784624 1.92364)
(21.1412 0.874153 1.81138)
(21.1412 0.945951 1.68702)
(21.1412 0.99841 1.55335)
(21.1412 1.03036 1.41336)
(21.1412 1.04109 1.27017)
(21.1412 1.03036 1.12698)
(21.1412 0.99841 0.986982)
(21.1412 0.945951 0.853314)
(21.1412 0.874153 0.728958)
(21.1412 0.784624 0.616692)
(21.1412 0.679361 0.519023)
(21.1412 0.560719 0.438134)
(21.1412 0.431346 0.375831)
(21.1412 0.294131 0.333506)
(21.1412 0.152142 0.312105)
(21.1412 0.00854778 0.312105)
(21.1412 -0.133443 0.333506)
(21.1412 -0.270658 0.375831)
(21.1412 -0.400031 0.438134)
(21.1412 -0.518674 0.519023)
(21.1412 -0.623935 0.616692)
(21.1412 -0.713465 0.728958)
(21.1412 -0.785261 0.853314)
(21.1412 -0.837723 0.986982)
(20.0737 -0.485952 1.27017)
(20.0737 -0.477349 1.3685)
(20.0737 -0.4518 1.46385)
(20.0737 -0.410083 1.55332)
(20.0737 -0.353464 1.63418)
(20.0737 -0.283664 1.70398)
(20.0737 -0.202804 1.7606)
(20.0737 -0.11334 1.80231)
(20.0737 -0.017993 1.82786)
(20.0737 0.0803442 1.83646)
(20.0737 0.17868 1.82786)
(20.0737 0.274029 1.80231)
(20.0737 0.363493 1.7606)
(20.0737 0.444352 1.70398)
(20.0737 0.514153 1.63418)
(20.0737 0.570771 1.55332)
(20.0737 0.612489 1.46385)
(20.0737 0.638037 1.3685)
(20.0737 0.646641 1.27017)
(20.0737 0.638037 1.17183)
(20.0737 0.612489 1.07648)
(20.0737 0.570771 0.98702)
(20.0737 0.514153 0.90616)
(20.0737 0.444352 0.83636)
(20.0737 0.363493 0.779741)
(20.0737 0.274029 0.738023)
(20.0737 0.17868 0.712475)
(20.0737 0.0803442 0.703871)
(20.0737 -0.017993 0.712475)
(20.0737 -0.11334 0.738023)
(20.0737 -0.202804 0.779741)
(20.0737 -0.283664 0.83636)
(20.0737 -0.353464 0.90616)
(20.0737 -0.410083 0.98702)
(20.0737 -0.4518 1.07648)
(20.0737 -0.477349 1.17183)
(21.1412 -2.07795 -0.821776)
(21.1412 -2.08868 -0.964969)
(21.1412 -2.07795 -1.10816)
(21.1412 -2.046 -0.681783)
(21.1412 -1.99354 -0.548115)
(21.1412 -1.92174 -0.423759)
(21.1412 -1.83221 -0.311493)
(21.1412 -1.72695 -0.213824)
(21.1412 -1.60831 -0.132935)
(21.1412 -1.47893 -0.0706317)
(21.1412 -1.34172 -0.0283066)
(21.1412 -1.19973 -0.00690506)
(21.1412 -1.05613 -0.00690506)
(21.1412 -0.914144 -0.0283066)
(21.1412 -0.77693 -0.0706317)
(21.1412 -0.647556 -0.132935)
(21.1412 -0.528913 -0.213824)
(21.1412 -0.423652 -0.311493)
(21.1412 -0.334123 -0.423759)
(21.1412 -0.262325 -0.548115)
(21.1412 -0.209865 -0.681783)
(21.1412 -0.177912 -0.821776)
(21.1412 -0.167181 -0.964969)
(21.1412 -0.177912 -1.10816)
(21.1412 -0.209865 -1.24815)
(21.1412 -0.262325 -1.38182)
(21.1412 -0.334123 -1.50618)
(21.1412 -0.423652 -1.61844)
(21.1412 -0.528913 -1.71611)
(21.1412 -0.647556 -1.797)
(21.1412 -0.77693 -1.85931)
(21.1412 -0.914144 -1.90163)
(21.1412 -1.05613 -1.92303)
(21.1412 -1.19973 -1.92303)
(21.1412 -1.34172 -1.90163)
(21.1412 -1.47893 -1.85931)
(21.1412 -1.60831 -1.797)
(21.1412 -1.72695 -1.71611)
(21.1412 -1.83221 -1.61844)
(21.1412 -1.92174 -1.50618)
(21.1412 -1.99354 -1.38182)
(21.1412 -2.046 -1.24815)
(20.0737 -1.68464 -0.964969)
(20.0737 -1.67619 -0.868296)
(20.0737 -1.65107 -0.774561)
(20.0737 -1.61006 -0.686612)
(20.0737 -1.5544 -0.60712)
(20.0737 -1.48578 -0.538501)
(20.0737 -1.40629 -0.482841)
(20.0737 -1.31834 -0.441829)
(20.0737 -1.2246 -0.416713)
(20.0737 -1.12793 -0.408255)
(20.0737 -1.03126 -0.416713)
(20.0737 -0.937524 -0.441829)
(20.0737 -0.849574 -0.482841)
(20.0737 -0.770082 -0.538501)
(20.0737 -0.701464 -0.60712)
(20.0737 -0.645802 -0.686612)
(20.0737 -0.604792 -0.774561)
(20.0737 -0.579676 -0.868296)
(20.0737 -0.571218 -0.964969)
(20.0737 -0.579676 -1.06164)
(20.0737 -0.604792 -1.15538)
(20.0737 -0.645802 -1.24333)
(20.0737 -0.701464 -1.32282)
(20.0737 -0.770082 -1.39144)
(20.0737 -0.849574 -1.4471)
(20.0737 -0.937524 -1.48811)
(20.0737 -1.03126 -1.51322)
(20.0737 -1.12793 -1.52168)
(20.0737 -1.2246 -1.51322)
(20.0737 -1.31834 -1.48811)
(20.0737 -1.40629 -1.4471)
(20.0737 -1.48578 -1.39144)
(20.0737 -1.5544 -1.32282)
(20.0737 -1.61006 -1.24333)
(20.0737 -1.65107 -1.15538)
(20.0737 -1.67619 -1.06164)
(21.1412 -2.26696 -1.12153)
(21.1412 -2.27767 -0.964969)
(21.1412 -2.26696 -0.808412)
(21.1412 -2.23504 -0.654772)
(21.1412 -2.18249 -0.50691)
(21.1412 -2.11029 -0.367581)
(21.1412 -2.0198 -0.23938)
(21.1412 -1.91269 -0.124696)
(21.1412 -1.79096 -0.0256639)
(21.1412 -1.65689 0.0558705)
(21.1412 -1.51296 0.118388)
(21.1412 -1.36185 0.160726)
(21.1412 -1.20639 0.182093)
(21.1412 -1.04947 0.182093)
(21.1412 -0.89401 0.160726)
(21.1412 -0.742906 0.118388)
(21.1412 -0.598975 0.0558705)
(21.1412 -0.464897 -0.0256639)
(21.1412 -0.343171 -0.124696)
(21.1412 -0.236063 -0.23938)
(21.1412 -0.14557 -0.367581)
(21.1412 -0.0733747 -0.50691)
(21.1412 -0.0208244 -0.654772)
(21.1412 0.0111027 -0.808412)
(21.1412 0.0218115 -0.964969)
(21.1412 0.0111027 -1.12153)
(21.1412 -0.0208244 -1.27517)
(21.1412 -0.0733747 -1.42303)
(21.1412 -0.14557 -1.56236)
(21.1412 -0.236063 -1.69056)
(21.1412 -0.343171 -1.80524)
(21.1412 -0.464897 -1.90427)
(21.1412 -0.598975 -1.98581)
(21.1412 -0.742906 -2.04833)
(21.1412 -0.89401 -2.09066)
(21.1412 -1.04947 -2.11203)
(21.1412 -1.20639 -2.11203)
(21.1412 -1.36185 -2.09066)
(21.1412 -1.51296 -2.04833)
(21.1412 -1.65689 -1.98581)
(21.1412 -1.79096 -1.90427)
(21.1412 -1.91269 -1.80524)
(21.1412 -2.0198 -1.69056)
(21.1412 -2.11029 -1.56236)
(21.1412 -2.18249 -1.42303)
(21.1412 -2.23504 -1.27517)
(21.1412 -1.05869 1.11361)
(21.1412 -1.0694 1.27017)
(21.1412 -1.05869 1.42672)
(21.1412 -1.02676 1.58036)
(21.1412 -0.974213 1.72823)
(21.1412 -0.902018 1.86756)
(21.1412 -0.811523 1.99576)
(21.1412 -0.704416 2.11044)
(21.1412 -0.582689 2.20947)
(21.1412 -0.448612 2.29101)
(21.1412 -0.304681 2.35353)
(21.1412 -0.153578 2.39586)
(21.1412 0.00188255 2.41723)
(21.1412 0.158806 2.41723)
(21.1412 0.314266 2.39586)
(21.1412 0.465369 2.35353)
(21.1412 0.609301 2.29101)
(21.1412 0.743379 2.20947)
(21.1412 0.865104 2.11044)
(21.1412 0.972213 1.99576)
(21.1412 1.06271 1.86756)
(21.1412 1.1349 1.72823)
(21.1412 1.18745 1.58036)
(21.1412 1.21938 1.42672)
(21.1412 1.23009 1.27017)
(21.1412 1.21938 1.11361)
(21.1412 1.18745 0.959971)
(21.1412 1.1349 0.81211)
(21.1412 1.06271 0.672781)
(21.1412 0.972213 0.54458)
(21.1412 0.865104 0.429895)
(21.1412 0.743379 0.330863)
(21.1412 0.609301 0.249329)
(21.1412 0.465369 0.186811)
(21.1412 0.314266 0.144474)
(21.1412 0.158806 0.123106)
(21.1412 0.00188255 0.123106)
(21.1412 -0.153578 0.144474)
(21.1412 -0.304681 0.186811)
(21.1412 -0.448612 0.249329)
(21.1412 -0.582689 0.330863)
(21.1412 -0.704416 0.429895)
(21.1412 -0.811523 0.54458)
(21.1412 -0.902018 0.672781)
(21.1412 -0.974213 0.81211)
(21.1412 -1.02676 0.959971)
(21.1412 0.155397 -1.16587)
(21.1412 0.144689 -1.00931)
(21.1412 0.155397 -0.852756)
(21.1412 0.187324 -0.699116)
(21.1412 0.239874 -0.551254)
(21.1412 0.312068 -0.411925)
(21.1412 0.402562 -0.283724)
(21.1412 0.50967 -0.16904)
(21.1412 0.631396 -0.0700079)
(21.1412 0.765474 0.0115265)
(21.1412 0.909406 0.0740445)
(21.1412 1.06051 0.116382)
(21.1412 1.21597 0.137749)
(21.1412 1.37289 0.137749)
(21.1412 1.52835 0.116382)
(21.1412 1.67946 0.0740445)
(21.1412 1.82339 0.0115265)
(21.1412 1.95746 -0.0700079)
(21.1412 2.07919 -0.16904)
(21.1412 2.1863 -0.283724)
(21.1412 2.27679 -0.411925)
(21.1412 2.34899 -0.551254)
(21.1412 2.40154 -0.699116)
(21.1412 2.43346 -0.852756)
(21.1412 2.44417 -1.00931)
(21.1412 2.43346 -1.16587)
(21.1412 2.40154 -1.31951)
(21.1412 2.34899 -1.46737)
(21.1412 2.27679 -1.6067)
(21.1412 2.1863 -1.7349)
(21.1412 2.07919 -1.84959)
(21.1412 1.95746 -1.94862)
(21.1412 1.82339 -2.03015)
(21.1412 1.67946 -2.09267)
(21.1412 1.52835 -2.13501)
(21.1412 1.37289 -2.15637)
(21.1412 1.21597 -2.15637)
(21.1412 1.06051 -2.13501)
(21.1412 0.909406 -2.09267)
(21.1412 0.765474 -2.03015)
(21.1412 0.631396 -1.94862)
(21.1412 0.50967 -1.84959)
(21.1412 0.402562 -1.7349)
(21.1412 0.312068 -1.6067)
(21.1412 0.239874 -1.46737)
(21.1412 0.187324 -1.31951)
(21.1412 -4.20061 -0.0108319)
(21.1412 -4.18995 -0.312806)
(21.1412 -4.18995 0.291142)
(21.1412 -4.15801 0.591612)
(21.1412 -4.10496 0.88908)
(21.1412 -4.03105 1.18207)
(21.1412 -3.93666 1.46911)
(21.1412 -3.82226 1.74878)
(21.1412 -3.68842 2.01968)
(21.1412 -3.5358 2.28047)
(21.1412 -3.36517 2.52984)
(21.1412 -3.17737 2.76655)
(21.1412 -2.97334 2.98943)
(21.1412 -2.7541 3.19736)
(21.1412 -2.52074 3.38931)
(21.1412 -2.27442 3.56432)
(21.1412 -2.01636 3.72151)
(21.1412 -1.74786 3.86011)
(21.1412 -1.47026 3.97943)
(21.1412 -1.18493 4.07887)
(21.1412 -0.893291 4.15793)
(21.1412 -0.596807 4.21623)
(21.1412 -0.296947 4.25346)
(21.1412 0.00479221 4.26946)
(21.1412 0.306907 4.26412)
(21.1412 0.607894 4.23749)
(21.1412 0.906252 4.1897)
(21.1412 1.2005 4.12098)
(21.1412 1.48916 4.03167)
(21.1412 1.7708 3.92222)
(21.1412 2.04403 3.79318)
(21.1412 2.30747 3.64519)
(21.1412 2.55981 3.47899)
(21.1412 2.7998 3.29539)
(21.1412 3.02625 3.09533)
(21.1412 3.23801 2.87979)
(21.1412 3.43405 2.64985)
(21.1412 3.61338 2.40666)
(21.1412 3.7751 2.15142)
(21.1412 3.91842 1.88541)
(21.1412 4.04262 1.60995)
(21.1412 4.14708 1.32642)
(21.1412 4.23128 1.03622)
(21.1412 4.2948 0.740814)
(21.1412 4.33732 0.441659)
(21.1412 4.35863 0.140249)
(21.1412 4.35863 -0.161913)
(21.1412 4.33732 -0.463323)
(21.1412 4.2948 -0.762478)
(21.1412 4.23128 -1.05789)
(21.1412 4.14708 -1.34808)
(21.1412 4.04262 -1.63162)
(21.1412 3.91842 -1.90707)
(21.1412 3.7751 -2.17308)
(21.1412 3.61338 -2.42832)
(21.1412 3.43405 -2.67152)
(21.1412 3.23801 -2.90146)
(21.1412 3.02625 -3.11699)
(21.1412 2.7998 -3.31706)
(21.1412 2.55981 -3.50065)
(21.1412 2.30747 -3.66686)
(21.1412 2.04403 -3.81485)
(21.1412 1.7708 -3.94389)
(21.1412 1.48916 -4.05333)
(21.1412 1.2005 -4.14264)
(21.1412 0.906252 -4.21136)
(21.1412 0.607894 -4.25916)
(21.1412 0.306907 -4.28579)
(21.1412 0.00479221 -4.29112)
(21.1412 -0.296947 -4.27513)
(21.1412 -0.596807 -4.23789)
(21.1412 -0.893291 -4.1796)
(21.1412 -1.18493 -4.10053)
(21.1412 -1.47026 -4.0011)
(21.1412 -1.74786 -3.88178)
(21.1412 -2.01636 -3.74318)
(21.1412 -2.27442 -3.58598)
(21.1412 -2.52074 -3.41097)
(21.1412 -2.7541 -3.21902)
(21.1412 -2.97334 -3.01109)
(21.1412 -3.17737 -2.78822)
(21.1412 -3.36517 -2.5515)
(21.1412 -3.5358 -2.30213)
(21.1412 -3.68842 -2.04134)
(21.1412 -3.82226 -1.77044)
(21.1412 -3.93666 -1.49077)
(21.1412 -4.03105 -1.20373)
(21.1412 -4.10496 -0.910744)
(21.1412 -4.15801 -0.613276)
(2.81508 -4.48856 -0.161549)
(2.83544 -4.48856 -0.177852)
(2.7802 -4.48856 -0.0962319)
(2.78051 -4.48856 -0.102527)
(2.78144 -4.48856 -0.108717)
(2.78295 -4.48856 -0.114797)
(2.78502 -4.48856 -0.120763)
(2.79058 -4.48856 -0.132168)
(2.79767 -4.48856 -0.142736)
(2.80589 -4.48856 -0.152465)
(2.87981 -4.48856 -0.20411)
(2.92673 -4.48856 -0.224815)
(2.97024 -4.48856 -0.24024)
(3.00917 -4.48856 -0.251874)
(3.09407 -4.48856 -0.27208)
(3.18753 -4.48856 -0.288202)
(3.28778 -4.48856 -0.300007)
(3.39308 -4.48856 -0.307262)
(3.50168 -4.48856 -0.309732)
(19.2189 -9.01373 -0.117159)
(19.2197 -9.01475 -0.0962319)
(19.2068 -8.9985 -0.177935)
(19.2124 -9.00556 -0.158208)
(19.1997 -8.98954 -0.196875)
(19.1912 -8.97877 -0.214846)
(19.1813 -8.96629 -0.231675)
(19.1702 -8.95222 -0.247199)
(19.1579 -8.9367 -0.26127)
(19.1445 -8.91987 -0.273751)
(19.1153 -8.88296 -0.29348)
(19.2164 -9.01065 -0.137884)
(19.8602 -4.48856 -0.309732)
(19.8973 -4.48856 -0.306488)
(19.9332 -4.48856 -0.296856)
(19.9669 -4.48856 -0.281128)
(19.9974 -4.48856 -0.259782)
(20.0237 -4.48856 -0.233467)
(20.0451 -4.48856 -0.202982)
(20.0608 -4.48856 -0.169253)
(20.0705 -4.48856 -0.133306)
(20.0737 -4.48856 -0.0962319)
(2.7802 -4.48856 0.0745681)
(19.2197 -9.01475 0.0745681)
(20.0737 -4.48856 0.0745681)
(20.0705 -4.48856 0.111642)
(20.0608 -4.48856 0.147589)
(20.0451 -4.48856 0.181318)
(20.0237 -4.48856 0.211803)
(19.9974 -4.48856 0.238119)
(19.9669 -4.48856 0.259465)
(19.9332 -4.48856 0.275192)
(19.8973 -4.48856 0.284825)
(19.8602 -4.48856 0.288068)
(19.2189 -9.01373 0.0954948)
(19.2068 -8.9985 0.156271)
(19.2124 -9.00556 0.136544)
(19.1997 -8.98954 0.175211)
(19.1912 -8.97877 0.193182)
(19.1813 -8.96629 0.210011)
(19.1702 -8.95222 0.225535)
(19.1579 -8.9367 0.239606)
(19.1445 -8.91987 0.252087)
(19.1153 -8.88296 0.271816)
(19.2164 -9.01065 0.11622)
(2.78086 -4.48856 0.083699)
(2.78281 -4.48856 0.0926615)
(2.78592 -4.48856 0.101292)
(2.79002 -4.48856 0.109533)
(2.80055 -4.48856 0.12471)
(2.8437 -4.48856 0.161821)
(2.81327 -4.48856 0.138208)
(2.95171 -4.48856 0.21236)
(2.87693 -4.48856 0.180986)
(3.04382 -4.48856 0.239216)
(3.38453 -4.48856 0.285198)
(3.2666 -4.48856 0.276289)
(3.50168 -4.48856 0.288068)
(3.15097 -4.48856 0.26089)
(2.81508 4.64924 0.139885)
(2.83544 4.64924 0.156188)
(2.7802 4.64924 0.0745681)
(2.78051 4.64924 0.0808632)
(2.78144 4.64924 0.0870529)
(2.78295 4.64924 0.0931331)
(2.78502 4.64924 0.0990992)
(2.79058 4.64924 0.110504)
(2.79767 4.64924 0.121073)
(2.80589 4.64924 0.130801)
(2.87981 4.64924 0.182446)
(2.92673 4.64924 0.203151)
(2.97024 4.64924 0.218576)
(3.00917 4.64924 0.23021)
(3.09407 4.64924 0.250416)
(3.18753 4.64924 0.266538)
(3.28778 4.64924 0.278343)
(3.39308 4.64924 0.285598)
(3.50168 4.64924 0.288068)
(19.1813 9.12698 0.210011)
(19.1912 9.13946 0.193182)
(19.1702 9.11291 0.225535)
(19.1579 9.09739 0.239606)
(19.1445 9.08056 0.252087)
(19.1153 9.04365 0.271816)
(19.1997 9.15023 0.175211)
(19.2068 9.15919 0.156271)
(19.2124 9.16625 0.136544)
(19.2164 9.17134 0.11622)
(19.2189 9.17442 0.0954948)
(19.2197 9.17544 0.0745681)
(19.8602 4.64924 0.288068)
(19.8973 4.64924 0.284825)
(19.9332 4.64924 0.275192)
(19.9669 4.64924 0.259465)
(19.9974 4.64924 0.238119)
(20.0237 4.64924 0.211803)
(20.0451 4.64924 0.181318)
(20.0608 4.64924 0.147589)
(20.0705 4.64924 0.111642)
(20.0737 4.64924 0.0745681)
(20.0737 4.64924 -0.0962319)
(20.0705 4.64924 -0.133306)
(20.0608 4.64924 -0.169253)
(20.0451 4.64924 -0.202982)
(20.0237 4.64924 -0.233467)
(19.9974 4.64924 -0.259782)
(19.9669 4.64924 -0.281128)
(19.9332 4.64924 -0.296856)
(19.8973 4.64924 -0.306488)
(19.8602 4.64924 -0.309732)
(19.1997 9.15023 -0.196875)
(19.2068 9.15919 -0.177935)
(19.1912 9.13946 -0.214846)
(19.1813 9.12698 -0.231675)
(19.1702 9.11291 -0.247199)
(19.1579 9.09739 -0.26127)
(19.1445 9.08056 -0.273751)
(19.1153 9.04365 -0.29348)
(19.2124 9.16625 -0.158208)
(19.2189 9.17442 -0.117159)
(19.2197 9.17544 -0.0962319)
(19.2164 9.17134 -0.137884)
(2.78086 4.64924 -0.105363)
(2.7802 4.64924 -0.0962319)
(2.78281 4.64924 -0.114325)
(2.78592 4.64924 -0.122956)
(2.79002 4.64924 -0.131196)
(2.80055 4.64924 -0.146374)
(2.8437 4.64924 -0.183485)
(2.81327 4.64924 -0.159872)
(2.9517 4.64924 -0.234024)
(2.87693 4.64924 -0.202649)
(3.04382 4.64924 -0.26088)
(3.38453 4.64924 -0.306862)
(3.2666 4.64924 -0.297952)
(3.50168 4.64924 -0.309732)
(3.15097 4.64924 -0.282554)
(14.7682 -2.57318 3.70862)
(14.7868 -2.599 3.69006)
(14.768 -1.81435 4.14706)
(14.7864 -1.78549 4.16006)
(14.7679 -1.81411 -4.16886)
(14.7862 -1.78532 -4.18183)
(14.7681 -2.57338 -3.73026)
(14.7867 -2.59915 -3.7117)
(21.1412 1.98276 -4.22291)
(21.1412 1.95899 -4.21367)
(21.1412 2.04015 -4.27253)
(21.1412 2.02396 -4.25278)
(21.1412 2.00466 -4.23609)
(21.1412 1.93392 -4.20859)
(21.1412 1.90838 -4.20787)
(21.1412 1.88306 -4.21151)
(21.1412 1.85875 -4.21941)
(21.1412 2.11656 -4.37897)
(21.1412 2.19335 -4.47573)
(21.1412 2.27056 -4.56209)
(21.1412 2.34821 -4.6372)
(21.1412 2.42635 -4.70027)
(21.1412 2.50498 -4.75084)
(21.1412 2.5841 -4.78905)
(21.1412 2.66369 -4.81546)
(21.1412 2.80074 -3.69268)
(21.1412 2.78858 -3.71516)
(21.1412 2.81653 -3.67263)
(21.1412 2.83551 -3.65554)
(21.1412 2.78044 -3.73933)
(21.1412 2.77653 -3.76461)
(21.1412 2.77698 -3.79016)
(21.1412 2.78178 -3.81529)
(21.1412 2.79079 -3.83921)
(21.1412 1.57453 -4.3285)
(21.1412 1.28369 -4.41842)
(21.1412 0.987499 -4.48877)
(21.1412 0.687284 -4.53924)
(21.1412 0.384373 -4.56961)
(21.1412 0.0801134 -4.57973)
(21.1412 -0.224146 -4.56957)
(21.1412 -0.527054 -4.53918)
(21.1412 -0.827265 -4.48868)
(21.1412 -1.12345 -4.4183)
(21.1412 -1.41428 -4.32835)
(21.1412 -1.69848 -4.21923)
(21.1412 -2.67519 -3.65526)
(21.1412 -2.91783 -3.45841)
(21.1412 -3.14645 -3.24543)
(21.1412 -3.35998 -3.01732)
(21.1412 -3.55742 -2.77516)
(21.1412 -3.73785 -2.52006)
(21.1412 -3.90042 -2.25323)
(21.1412 -4.04437 -1.97591)
(21.1412 -4.16904 -1.68941)
(21.1412 -4.27383 -1.39505)
(21.1412 -4.35825 -1.09422)
(21.1412 -4.42192 -0.788317)
(21.1412 -4.46453 -0.478782)
(21.1412 -4.48588 -0.167059)
(21.1412 -4.48588 0.145395)
(21.1412 -4.46453 0.457118)
(21.1412 -4.42192 0.766653)
(21.1412 -4.35825 1.07255)
(21.1412 -4.27383 1.37338)
(21.1412 -4.16904 1.66774)
(21.1412 -4.04437 1.95425)
(21.1412 -3.90042 2.23157)
(21.1412 -3.73785 2.4984)
(21.1412 -3.55742 2.75349)
(21.1412 -3.35998 2.99566)
(21.1412 -3.14645 3.22377)
(21.1412 -2.91783 3.43674)
(21.1412 -2.67519 3.6336)
(21.1412 -1.69848 4.19757)
(21.1412 -1.41425 4.3067)
(21.1412 -1.12337 4.39665)
(21.1412 -0.827151 4.46704)
(21.1412 -0.5269 4.51753)
(21.1412 -0.223954 4.54792)
(21.1412 0.0803442 4.55807)
(21.1412 0.384643 4.54792)
(21.1412 0.68759 4.51753)
(21.1412 0.987839 4.46704)
(21.1412 1.28406 4.39665)
(21.1412 1.57493 4.3067)
(21.1412 1.85917 4.19757)
(21.1412 2.83588 3.6336)
(21.1412 3.07854 3.43673)
(21.1412 3.30717 3.22374)
(21.1412 3.52071 2.99562)
(21.1412 3.71815 2.75344)
(21.1412 3.89859 2.49833)
(21.1412 4.06116 2.23148)
(21.1412 4.20511 1.95414)
(21.1412 4.32978 1.66761)
(21.1412 4.43456 1.37324)
(21.1412 4.51898 1.07239)
(21.1412 4.58264 0.766467)
(21.1412 4.62524 0.456914)
(21.1412 4.64658 0.145173)
(21.1412 4.62519 -0.479037)
(21.1412 4.58256 -0.788587)
(21.1412 4.51887 -1.0945)
(21.1412 4.43442 -1.39534)
(21.1412 4.32961 -1.68971)
(21.1412 4.20492 -1.97622)
(21.1412 4.06093 -2.25354)
(21.1412 3.89833 -2.52038)
(21.1412 3.71788 -2.77547)
(21.1412 3.5204 -3.01763)
(21.1412 3.30684 -3.24573)
(21.1412 3.07819 -3.4587)
(21.1412 -1.74803 -4.20769)
(21.1412 -1.77358 -4.2084)
(21.1412 -1.72277 -4.21133)
(21.1412 -1.79858 -4.21344)
(21.1412 -1.82243 -4.22268)
(21.1412 -1.84433 -4.23585)
(21.1412 -1.86369 -4.25257)
(21.1412 -1.8799 -4.27234)
(21.1412 -2.61621 -3.76441)
(21.1412 -2.6201 -3.7392)
(21.1412 -2.63049 -3.83893)
(21.1412 -2.62148 -3.81503)
(21.1412 -2.61668 -3.78997)
(21.1412 -2.62824 -3.71496)
(21.1412 -2.64038 -3.69247)
(21.1412 -2.65619 -3.67237)
(21.1412 -2.68446 -3.95832)
(21.1412 -2.72986 -4.0732)
(21.1412 -2.76606 -4.18324)
(21.1412 -2.79228 -4.28805)
(21.1412 -2.80783 -4.38725)
(21.1412 -2.81231 -4.48063)
(21.1412 -2.80583 -4.56825)
(21.1412 -2.78891 -4.65039)
(21.1412 -2.64043 3.67074)
(21.1412 -2.62827 3.69322)
(21.1412 -2.65621 3.65069)
(21.1412 -2.62013 3.71739)
(21.1412 -2.61622 3.74266)
(21.1412 -2.61667 3.76821)
(21.1412 -2.62148 3.79334)
(21.1412 -2.63049 3.81726)
(21.1412 -1.8225 4.20106)
(21.1412 -1.79873 4.19182)
(21.1412 -1.8799 4.25068)
(21.1412 -1.86371 4.23093)
(21.1412 -1.84441 4.21424)
(21.1412 -1.77366 4.18674)
(21.1412 -1.74812 4.18602)
(21.1412 -1.7228 4.18966)
(21.1412 -1.95631 4.35711)
(21.1412 -2.0331 4.45386)
(21.1412 -2.1103 4.54021)
(21.1412 -2.18795 4.61532)
(21.1412 -2.26608 4.67838)
(21.1412 -2.3447 4.72895)
(21.1412 -2.42382 4.76715)
(21.1412 -2.50341 4.79356)
(21.1412 1.90872 4.18603)
(21.1412 1.93427 4.18674)
(21.1412 1.88346 4.18967)
(21.1412 1.95927 4.19177)
(21.1412 1.98312 4.20102)
(21.1412 2.00502 4.21419)
(21.1412 2.02438 4.23091)
(21.1412 2.04059 4.25068)
(21.1412 2.7769 3.74274)
(21.1412 2.78079 3.71754)
(21.1412 2.79118 3.81726)
(21.1412 2.78217 3.79336)
(21.1412 2.77737 3.7683)
(21.1412 2.78892 3.6933)
(21.1412 2.80107 3.67081)
(21.1412 2.81688 3.65071)
(21.1412 2.84515 3.93665)
(21.1412 2.89055 4.05154)
(21.1412 2.92674 4.16158)
(21.1412 2.95297 4.26639)
(21.1412 2.96852 4.36558)
(21.1412 2.973 4.45897)
(21.1412 2.96652 4.54659)
(21.1412 2.9496 4.62873)
(21.1412 2.6641 4.79356)
(21.1412 2.68647 4.79823)
(21.1412 2.70914 4.8007)
(21.1412 2.73195 4.80096)
(21.1412 2.75472 4.799)
(21.1412 2.77719 4.79484)
(21.1412 2.79911 4.78852)
(21.1412 2.8203 4.78011)
(21.1412 2.84063 4.76966)
(21.1412 2.85985 4.75728)
(21.1412 2.87773 4.74313)
(21.1412 2.89415 4.72731)
(21.1412 2.909 4.70993)
(21.1412 2.92208 4.69119)
(21.1412 2.93326 4.67131)
(21.1412 2.94246 4.65044)
(21.1412 -2.68446 3.93665)
(21.1412 -2.72986 4.05154)
(21.1412 -2.76606 4.16158)
(21.1412 -2.79228 4.26639)
(21.1412 -2.80783 4.36558)
(21.1412 -2.81231 4.45897)
(21.1412 -2.80583 4.54659)
(21.1412 -2.78891 4.62873)
(21.1412 -2.52578 4.79823)
(21.1412 -2.54846 4.8007)
(21.1412 2.117 4.35711)
(21.1412 2.84476 -3.95859)
(21.1412 2.89016 -4.07347)
(21.1412 2.92634 -4.18351)
(21.1412 2.95256 -4.2883)
(21.1412 2.96811 -4.3875)
(21.1412 2.97259 -4.48087)
(21.1412 2.96612 -4.56849)
(21.1412 2.9492 -4.65062)
(21.1412 2.68607 -4.82013)
(21.1412 2.70874 -4.8226)
(21.1412 -1.95631 -4.37877)
(21.1412 2.58451 4.76715)
(21.1412 2.50539 4.72895)
(21.1412 2.42676 4.67838)
(21.1412 2.34864 4.61532)
(21.1412 2.27099 4.54021)
(21.1412 2.19378 4.45386)
(21.1412 -2.57126 4.80096)
(21.1412 -2.59403 4.799)
(21.1412 -2.61651 4.79484)
(21.1412 -2.63842 4.78852)
(21.1412 -2.65962 4.78011)
(21.1412 -2.67995 4.76966)
(21.1412 -2.69916 4.75728)
(21.1412 -2.71704 4.74313)
(21.1412 -2.73347 4.72731)
(21.1412 -2.74831 4.70993)
(21.1412 -2.7614 4.69118)
(21.1412 -2.77257 4.67131)
(21.1412 -2.78177 4.65044)
(21.1412 -2.0331 -4.47552)
(21.1412 -2.1103 -4.56188)
(21.1412 -2.18795 -4.63698)
(21.1412 -2.26608 -4.70004)
(21.1412 -2.3447 -4.75061)
(21.1412 -2.42382 -4.78881)
(21.1412 -2.50341 -4.81523)
(21.1412 -2.52578 -4.8199)
(21.1412 -2.54845 -4.82237)
(21.1412 -2.57126 -4.82263)
(21.1412 -2.59403 -4.82066)
(21.1412 -2.61651 -4.8165)
(21.1412 -2.63842 -4.81019)
(21.1412 -2.65962 -4.80178)
(21.1412 -2.67994 -4.79133)
(21.1412 -2.69916 -4.77895)
(21.1412 -2.71704 -4.76479)
(21.1412 -2.73347 -4.74897)
(21.1412 -2.74831 -4.73159)
(21.1412 -2.7614 -4.71285)
(21.1412 -2.77257 -4.69297)
(21.1412 -2.78177 -4.6721)
(21.1412 2.73154 -4.82286)
(21.1412 2.75432 -4.8209)
(21.1412 2.77679 -4.81673)
(21.1412 2.7987 -4.81042)
(21.1412 2.8199 -4.80201)
(21.1412 2.84023 -4.79156)
(21.1412 2.85944 -4.77918)
(21.1412 2.87733 -4.76503)
(21.1412 2.89375 -4.74921)
(21.1412 2.9086 -4.73182)
(21.1412 2.92168 -4.71308)
(21.1412 2.93286 -4.69321)
(21.1412 2.94205 -4.67234)
(-15.2534 -4.47077 0.262448)
(-15.7754 -4.44609 0.262448)
(-16.2927 -4.41447 0.262448)
(-16.8054 -4.37581 0.262448)
(-17.3132 -4.33002 0.262448)
(-17.8162 -4.27695 0.262448)
(-18.3142 -4.21643 0.262448)
(-18.8071 -4.14828 0.262448)
(-19.2948 -4.07229 0.262448)
(-19.7771 -3.98824 0.262448)
(-20.2538 -3.89591 0.262448)
(-20.7249 -3.79507 0.262448)
(-21.1901 -3.6855 0.262448)
(-21.6494 -3.567 0.262448)
(-22.1025 -3.43939 0.262448)
(-22.5495 -3.30255 0.262448)
(-22.9902 -3.15638 0.262448)
(-23.4247 -3.00087 0.262448)
(-23.853 -2.83606 0.262448)
(-24.2752 -2.66206 0.262448)
(-24.6912 -2.47899 0.262448)
(-25.1014 -2.28704 0.262448)
(-25.5057 -2.08639 0.262448)
(-25.9043 -1.87725 0.262448)
(-26.2974 -1.65982 0.262448)
(-26.6851 -1.43428 0.262448)
(-27.0675 -1.20083 0.262448)
(-27.4447 -0.959625 0.262448)
(-27.8168 -0.710807 0.262448)
(-28.1839 -0.454489 0.262448)
(-28.546 -0.190756 0.262448)
(-15.2534 4.63146 -0.284112)
(-15.7754 4.60678 -0.284112)
(-16.2927 4.57515 -0.284112)
(-16.8054 4.5365 -0.284112)
(-17.3132 4.49071 -0.284112)
(-17.8162 4.43763 -0.284112)
(-18.3142 4.37712 -0.284112)
(-18.8071 4.30897 -0.284112)
(-19.2948 4.23298 -0.284112)
(-19.7771 4.14893 -0.284112)
(-20.2538 4.05659 -0.284112)
(-20.7249 3.95575 -0.284112)