/*--------------------------------*- C++ -*----------------------------------*\
| =========                 |                                                 |
| \\      /  F ield         | OpenFOAM: The Open Source CFD Toolbox           |
|  \\    /   O peration     | Version:  2506                                  |
|   \\  /    A nd           | Website:  www.openfoam.com                      |
|    \\/     M anipulation  |                                                 |
\*---------------------------------------------------------------------------*/
FoamFile
{
    version     2.0;
    format      ascii;
    arch        "LSB;label=32;scalar=64";
    class       polyBoundaryMesh;
    location    "constant/polyMesh";
    object      boundary;
}
// * * * * * * * * * * * * * * * * * * * * * * * * * * * * * * * * * * * * * //

4
(
    inlet
    {
        type            patch;
        nFaces          3600;
        startFace       2552782;
    }
    outlet
    {
        type            patch;
        nFaces          3600;
        startFace       2556382;
    }
    walls
    {
        type            symmetry;
        inGroups        1(symmetry);
        nFaces          28800;
        startFace       2559982;
    }
    rocket
    {
        type            wall;
        inGroups        1(wall);
        nFaces          42798;
        startFace       2588782;
    }
)

// ************************************************************************* //
